<routes>
    <!-- normal distribution at mean=1.0, dev=0.1, min=0.62, max=1.54) of edge speed (130 km/h) -->
    <vType id="cc" accel="2.5" decel="15.0" apparentDecel="15.0" emergencyDecel="15.0" sigma="0" tau="1.0" length="4" minGap="0" maxSpeed="55.55" speedFactor="normc(1.0,0.1,0.62,1.54)" color="0,1,0" carFollowModel="Krauss" laneChangeModel="LC2013" />

    <route id="route" edges="edge_0_0" />

    <flow id="static" begin="0" period="3" type="cc" number="100" route="route" departSpeed="0" arrivalPos="100000" departPos="base" departLane="first" />
</routes>
