<?xml version="1.0" encoding="iso-8859-1"?>

<configuration xmlns:xsi="http://www.w3.org/2001/XMLSchema-instance" xsi:noNamespaceSchemaLocation="http://sumo.sf.net/xsd/sumoConfiguration.xsd">

    <input>
        <net-file value="freeway.net.xml"/>
        <route-files value="freeway.rou.xml"/>
    </input>

    <time>
        <begin value="0"/>
        <step-length value="1"/>
    </time>
    <processing>
        <step-method.ballistic value="true"/>
        <collision.action value="warn"/>
    </processing>

    <gui_only>
        <gui-settings-file value="freeway.gui.xml"/>
    </gui_only>

</configuration>
