<routes>
    <vType id="cc" accel="2.5" decel="15.0" apparentDecel="15.0" emergencyDecel="15.0" sigma="0" tau="1.0" length="4.0" minGap="2.5" maxSpeed="55" speedFactor="normc(1.0,0.0,0.0,0.0)" color="0,1,0" carFollowModel="Krauss" laneChangeModel="LC2013" emissionClass="HBEFA3/PC_G_EU4" />

    <route id="route" edges="edge_0_0" />

    <flow id="static" begin="0" period="3" type="cc" number="1" route="route" departSpeed="0" arrivalPos="100000" departPos="base" departLane="first" />
</routes>
