<?xml version="1.0" encoding="UTF-8"?>
<!--
Copyright (c) 2020-2024 Julian Heinovski <heinovski@ccs-labs.org>

SPDX-License-Identifier: GPL-3.0-or-later

This program is free software: you can redistribute it and/or modify
it under the terms of the GNU General Public License as published by
the Free Software Foundation, either version 3 of the License, or
any later version.

This program is distributed in the hope that it will be useful,
but WITHOUT ANY WARRANTY; without even the implied warranty of
MERCHANTABILITY or FITNESS FOR A PARTICULAR PURPOSE.  See the
GNU General Public License for more details.

You should have received a copy of the GNU General Public License
along with this program.  If not, see <https://www.gnu.org/licenses/>.
-->

<routes>
    <vType id="vehicle" accel="2.5" decel="15.0" apparentDecel="15.0" emergencyDecel="15.0" sigma="0.5" tau="1.0" length="4" minGap="2.5" maxSpeed="55" speedFactor="1" color="0,1,0" carFollowModel="Krauss" laneChangeModel="LC2013" emissionClass="HBEFA3/PC_G_EU4" />

    <route id="route" edges="edge_0_0" />
</routes>
