<?xml version="1.0" encoding="UTF-8"?>
<!--
Copyright (c) 2020-2024 Julian Heinovski <heinovski@ccs-labs.org>

SPDX-License-Identifier: GPL-3.0-or-later

This program is free software: you can redistribute it and/or modify
it under the terms of the GNU General Public License as published by
the Free Software Foundation, either version 3 of the License, or
any later version.

This program is distributed in the hope that it will be useful,
but WITHOUT ANY WARRANTY; without even the implied warranty of
MERCHANTABILITY or FITNESS FOR A PARTICULAR PURPOSE.  See the
GNU General Public License for more details.

You should have received a copy of the GNU General Public License
along with this program.  If not, see <https://www.gnu.org/licenses/>.
-->

<configuration xmlns:xsi="http://www.w3.org/2001/XMLSchema-instance" xsi:noNamespaceSchemaLocation="http://sumo.sf.net/xsd/sumoConfiguration.xsd">

    <input>
        <net-file value="freeway.net.xml"/>
        <route-files value="freeway.rou.xml"/>
    </input>

    <time>
        <begin value="0"/>
        <step-length value="1"/>
    </time>
    <processing>
        <step-method.ballistic value="true"/>
        <collision.action value="warn"/>
    </processing>

    <gui_only>
        <gui-settings-file value="freeway.gui.xml"/>
    </gui_only>

</configuration>
