<?xml version="1.0" encoding="UTF-8"?>
<!--
Copyright (c) 2020-2022 Julian Heinovski <heinovski@ccs-labs.org>

SPDX-License-Identifier: GPL-3.0-or-later

This program is free software: you can redistribute it and/or modify
it under the terms of the GNU General Public License as published by
the Free Software Foundation, either version 3 of the License, or
any later version.

This program is distributed in the hope that it will be useful,
but WITHOUT ANY WARRANTY; without even the implied warranty of
MERCHANTABILITY or FITNESS FOR A PARTICULAR PURPOSE.  See the
GNU General Public License for more details.

You should have received a copy of the GNU General Public License
along with this program.  If not, see <https://www.gnu.org/licenses/>.
-->

<routes>
    <!-- desired speed: normal distribution at mean=1.0, dev=0.1, min=0.61, max=1.39) of edge speed (21.96 [80km/h] <= 36 [130 km/h] <= 50.04 [180km/h]) -->
    <vType id="human" accel="2.5" decel="15.0" apparentDecel="15.0" emergencyDecel="15.0" sigma="0" tau="1.0" length="4.0" minGap="2.5" maxSpeed="55" speedFactor="normc(1.0,0.1,0.61,1.39)" color="0,1,0" carFollowModel="Krauss" laneChangeModel="LC2013" emissionClass="HBEFA3/PC_G_EU4" />

    <route id="route" edges="edge_0_0" />

    <!-- use depart pos 4 to get rid of the magic additional 0.1m -->
    <flow id="static" begin="0" period="3" type="human" number="100" route="route" departSpeed="0" arrivalPos="5000" departPos="4" departLane="first" />
</routes>
